py_fx_tools_dss/IMEX_to_DSS/xlsx_DSS_xlsx/Examples/13NodeIEEE/LineCode_default.dss
New "LineCode.1" nphases=3 rmatrix=[  0.08666667   0.02954546   0.02907197 |  0.02954546   0.08837121   0.02992424 |  0.02907197   0.02992424   0.08740530 ] xmatrix=[  0.20416667   0.09501894   0.07289773 |  0.09501894   0.19852273   0.08022727 |  0.07289773   0.08022727   0.20172349 ] cmatrix=[  2.85171007  -0.92029379  -0.35075557 | -0.92029379   3.00463186  -0.58501125 | -0.35075557  -0.58501125   2.71134756 ] baseFreq=60.0 
New "LineCode.2" nphases=3 rmatrix=[  0.08837121   0.02992424   0.02954546 |  0.02992424   0.08740530   0.02907197 |  0.02954546   0.02907197   0.08666667 ] xmatrix=[  0.19852273   0.08022727   0.09501894 |  0.08022727   0.20172349   0.07289773 |  0.09501894   0.07289773   0.20416667 ] cmatrix=[  3.00463186  -0.58501125  -0.92029379 | -0.58501125   2.71134756  -0.35075557 | -0.92029379  -0.35075557   2.85171007 ] baseFreq=60.0 
New "LineCode.3" nphases=3 rmatrix=[  0.08740530   0.02907197   0.02992424 |  0.02907197   0.08666667   0.02954546 |  0.02992424   0.02954546   0.08837121 ] xmatrix=[  0.20172349   0.07289773   0.08022727 |  0.07289773   0.20416667   0.09501894 |  0.08022727   0.09501894   0.19852273 ] cmatrix=[  2.71134756  -0.35075557  -0.58501125 | -0.35075557   2.85171007  -0.92029379 | -0.58501125  -0.92029379   3.00463186 ] baseFreq=60.0 
New "LineCode.4" nphases=3 rmatrix=[  0.08740530   0.02992424   0.02907197 |  0.02992424   0.08837121   0.02954546 |  0.02907197   0.02954546   0.08666667 ] xmatrix=[  0.20172349   0.08022727   0.07289773 |  0.08022727   0.19852273   0.09501894 |  0.07289773   0.09501894   0.20416667 ] cmatrix=[  2.71134756   0.58501125  -0.35075557 |  0.58501125   3.00463186  -0.92029379 | -0.35075557  -0.92029379   2.85171007 ] baseFreq=60.0 
New "LineCode.5" nphases=3 rmatrix=[  0.08837121   0.02954546   0.02992424 |  0.02954546   0.08666667   0.02907197 |  0.02992424   0.02907197   0.08740530 ] xmatrix=[  0.19852273   0.09501894   0.08022727 |  0.09501894   0.20416667   0.07289773 |  0.08022727   0.07289773   0.20172349 ] cmatrix=[  3.00463186  -0.92029379  -0.58501125 | -0.92029379   2.85171007  -0.35075557 | -0.58501125  -0.35075557   2.71134756 ] baseFreq=60.0 
New "LineCode.6" nphases=3 rmatrix=[  0.08666667   0.02907197   0.02954546 |  0.02907197   0.08740530   0.02992424 |  0.02954546   0.02992424   0.08837121 ] xmatrix=[  0.20416667   0.07289773   0.09501894 |  0.07289773   0.20172349   0.08022727 |  0.09501894   0.08022727   0.19852273 ] cmatrix=[  2.85171007  -0.35075557  -0.92029379 | -0.35075557   2.71134756  -0.58501125 | -0.92029379  -0.58501125   3.00463186 ] baseFreq=60.0 
New "LineCode.7" nphases=2 rmatrix=[  0.08666667   0.02907197 |  0.02907197   0.08740530 ] xmatrix=[  0.20416667   0.07289773 |  0.07289773   0.20172349 ] cmatrix=[  2.56982960  -0.52995137 | -0.52995137   2.59746001 ] baseFreq=60.0 
New "LineCode.8" nphases=2 rmatrix=[  0.08666667   0.02907197 |  0.02907197   0.08740530 ] xmatrix=[  0.20416667   0.07289773 |  0.07289773   0.20172349 ] cmatrix=[  2.56982960  -0.52995137 | -0.52995137   2.59746001 ] baseFreq=60.0 
New "LineCode.9" nphases=1 rmatrix=[  0.25174242 ] xmatrix=[  0.25520833 ]  cmatrix=[  2.27036613 ] baseFreq=60.0 
New "LineCode.10" nphases=1 rmatrix=[  0.25174242 ] xmatrix=[  0.25520833 ] cmatrix=[  2.27036613 ] baseFreq=60.0 
New "LineCode.11" nphases=1 rmatrix=[  0.25174242 ] xmatrix=[  0.25520833 ] cmatrix=[  2.27036613 ] baseFreq=60.0 
New "LineCode.12" nphases=3 rmatrix=[  0.28804924   0.09844697   0.09325758 |  0.09844697   0.29032197   0.09844697 |  0.09325758   0.09844697   0.28804924 ] xmatrix=[  0.14244318   0.05255682   0.04085227 |  0.05255682   0.13564394   0.05255682 |  0.04085227   0.05255682   0.14244318 ] cmatrix=[ 33.77150149   0.00000000   0.00000000 |  0.00000000  33.77150149   0.00000000 |  0.00000000   0.00000000  33.77150149 ] baseFreq=60.0 
New "LineCode.300" nphases=3 rmatrix=[  0.25318182   0.03979167   0.04034091 |  0.03979167   0.25071970   0.03912879 |  0.04034091   0.03912879   0.25178030 ] xmatrix=[  0.25270833   0.10945076   0.09498106 |  0.10945076   0.25698864   0.08695076 |  0.09498106   0.08695076   0.25513258 ] cmatrix=[  2.68015031  -0.76928101  -0.49950768 | -0.76928101   2.56103810  -0.31207298 | -0.49950768  -0.31207298   2.45559039 ] baseFreq=60.0 
New "LineCode.301" nphases=3 rmatrix=[  0.36553030   0.04407197   0.04467803 |  0.04407197   0.36282197   0.04333333 |  0.04467803   0.04333333   0.36399621 ] xmatrix=[  0.26732955   0.12200758   0.10778409 |  0.12200758   0.27047349   0.09920455 |  0.10778409   0.09920455   0.26910985 ] cmatrix=[  2.57249216  -0.72160598  -0.47232940 | -0.72160598   2.46438188  -0.29896110 | -0.47232940  -0.29896110   2.36888112 ] baseFreq=60.0 
New "LineCode.302" nphases=1 rmatrix=[  0.53020800 ] xmatrix=[  0.28134500 ] cmatrix=[  2.12257000 ] baseFreq=60.0 
New "LineCode.303" nphases=1 rmatrix=[  0.53020800 ] xmatrix=[  0.28134500 ] cmatrix=[  2.12257000 ] baseFreq=60.0 
New "LineCode.304" nphases=1 rmatrix=[  0.36395800 ] xmatrix=[  0.26916700 ] cmatrix=[  2.12257000 ] baseFreq=60.0 
New "LineCode.400" nphases=3 rmatrix=[  0.08820500   0.03121370   0.03062640 |  0.03121370   0.09019460   0.03161430 |  0.03062640   0.03161430   0.08896650 ]  xmatrix=[  0.20744000   0.09353140   0.07603120 |  0.09353140   0.20078300   0.08558790 |  0.07603120   0.08558790   0.20487700 ] cmatrix=[  2.90301000  -0.67933500  -0.22313000 | -0.67933500   3.15896000  -0.48141600 | -0.22313000  -0.48141600   2.89650000 ] baseFreq=60.0 
New "LineCode.601" nphases=3 rmatrix=[  0.06562500   0.02954546   0.02992424 |  0.02954546   0.06392046   0.02907197 |  0.02992424   0.02907197   0.06465909 ] xmatrix=[  0.19278409   0.09501894   0.08022727 |  0.09501894   0.19844697   0.07289773 |  0.08022727   0.07289773   0.19598485 ] cmatrix=[  3.16483804  -1.00263243  -0.63273652 | -1.00263243   2.99398159  -0.37260871 | -0.63273652  -0.37260871   2.83267020 ] baseFreq=60.0 
New "LineCode.602" nphases=3 rmatrix=[  0.14253788   0.02992424   0.02954546 |  0.02992424   0.14157197   0.02907197 |  0.02954546   0.02907197   0.14083333 ]  xmatrix=[  0.22375000   0.08022727   0.09501894 |  0.08022727   0.22695076   0.07289773 |  0.09501894   0.07289773   0.22939394 ] cmatrix=[  2.86301342  -0.54341492  -0.84925850 | -0.54341492   2.60203159  -0.33096214 | -0.84925850  -0.33096214   2.72516277 ] baseFreq=60.0 
New "LineCode.603" nphases=2 rmatrix=[  0.25178030   0.03912879 |  0.03912879   0.25071970 ] xmatrix=[  0.25513258   0.08695076 |  0.08695076   0.25698864 ] cmatrix=[  2.36601760  -0.45208384 | -0.45208384   2.34396351 ] baseFreq=60.0 
New "LineCode.604" nphases=2 rmatrix=[  0.25071970   0.03912879 |  0.03912879   0.25178030 ] xmatrix=[  0.25698864   0.08695076 |  0.08695076   0.25513258 ] cmatrix=[  2.34396351  -0.45208384 | -0.45208384   2.36601760 ] baseFreq=60.0 
New "LineCode.605" nphases=1 rmatrix=[  0.25174242 ] xmatrix=[  0.25520833 ] cmatrix=[  2.27036613 ] baseFreq=60.0 
New "LineCode.606" nphases=3 rmatrix=[  0.15117424   0.06045455   0.05395833 |  0.06045455   0.14945076   0.06045455 |  0.05395833   0.06045455   0.15117424 ] xmatrix=[  0.08452652   0.00621212  -0.00270833 |  0.00621212   0.07653409   0.00621212 | -0.00270833   0.00621212   0.08452652 ] cmatrix=[ 48.67459408   0.00000000   0.00000000 |  0.00000000  48.67459408   0.00000000 |  0.00000000   0.00000000  48.67459408 ] baseFreq=60.0 
New "LineCode.607" nphases=1 rmatrix=[  0.25426136 ] xmatrix=[  0.09704546 ] cmatrix=[ 44.70661522 ] baseFreq=60.0 
New "LineCode.721" nphases=3 rmatrix=[  0.05541667   0.01274621   0.00638258 |  0.01274621   0.05011364   0.01274621 |  0.00638258   0.01274621   0.05541667 ] xmatrix=[  0.03736742  -0.00696970  -0.00789773 | -0.00696970   0.03598485  -0.00696970 | -0.00789773  -0.00696970   0.03736742 ] cmatrix=[ 80.27484728   0.00000000   0.00000000 |  0.00000000  80.27484728   0.00000000 |  0.00000000   0.00000000  80.27484728 ] baseFreq=60.0 
New "LineCode.722" nphases=3 rmatrix=[  0.08998106   0.03085227   0.02337121 |  0.03085227   0.08500000   0.03085227 |  0.02337121   0.03085227   0.08998106 ] xmatrix=[  0.05630682  -0.00617424  -0.01149621 | -0.00617424   0.05071970  -0.00617424 | -0.01149621  -0.00617424   0.05630682 ] cmatrix=[ 64.21841090   0.00000000   0.00000000 |  0.00000000  64.21841090   0.00000000 |  0.00000000   0.00000000  64.21841090 ] baseFreq=60.0 
New "LineCode.723" nphases=3 rmatrix=[  0.24500000   0.09225379   0.08683712 |  0.09225379   0.24662879   0.09225379 |  0.08683712   0.09225379   0.24500000 ] xmatrix=[  0.12714015   0.03998106   0.02880682 |  0.03998106   0.11981061   0.03998106 |  0.02880682   0.03998106   0.12714015 ]  cmatrix=[ 37.59771120   0.00000000   0.00000000 |  0.00000000  37.59771120   0.00000000 |  0.00000000   0.00000000  37.59771120 ] baseFreq=60.0 
New "LineCode.724" nphases=3 rmatrix=[  0.39681818   0.09856061   0.09329546 |  0.09856061   0.39901515   0.09856061 |  0.09329546   0.09856061   0.39681818 ] xmatrix=[  0.14693182   0.05185606   0.04020833 |  0.05185606   0.14011364   0.05185606 |  0.04020833   0.05185606   0.14693182 ] cmatrix=[ 30.26701029   0.00000000   0.00000000 |  0.00000000  30.26701029   0.00000000 |  0.00000000   0.00000000  30.26701029 ] baseFreq=60.0 
New "LineCode.mtx601" nphases=3 units=mi rmatrix=[  0.34650000   0.15600000   0.15800000 |  0.15600000   0.33750000   0.15350000 |  0.15800000   0.15350000   0.34140000 ] xmatrix=[  1.01790000   0.50170000   0.42360000 |  0.50170000   1.04780000   0.38490000 |  0.42360000   0.38490000   1.03480000 ] baseFreq=60.0 
New "LineCode.mtx602" nphases=3 units=mi rmatrix=[  0.75260000   0.15800000   0.15600000 |  0.15800000   0.74750000   0.15350000 |  0.15600000   0.15350000   0.74360000 ] xmatrix=[  1.18140000   0.42360000   0.50170000 |  0.42360000   1.19830000   0.38490000 |  0.50170000   0.38490000   1.21120000 ] baseFreq=60.0 
New "LineCode.mtx603" nphases=2 units=mi rmatrix=[  1.32380000   0.20660000 |  0.20660000   1.32940000 ] xmatrix=[  1.35690000   0.45910000 |  0.45910000   1.34710000 ] baseFreq=60.0 
New "LineCode.mtx604" nphases=2 units=mi rmatrix=[  1.32380000   0.20660000 |  0.20660000   1.32940000 ] xmatrix=[  1.35690000   0.45910000 |  0.45910000   1.34710000 ] baseFreq=60.0 
New "LineCode.mtx605" nphases=1 units=mi rmatrix=[  1.32920000 ] xmatrix=[  1.34750000 ] baseFreq=60.0 
New "LineCode.mtx606" nphases=3 units=mi rmatrix=[  0.79172100   0.31847600   0.28345000 |  0.31847600   0.78164900   0.31847600 |  0.28345000   0.31847600   0.79172100 ] xmatrix=[  0.43835200   0.02768380  -0.01842040 |  0.02768380   0.39669700   0.02768380 | -0.01842040   0.02768380   0.43835200 ] cmatrix=[383.94800000   0.00000000   0.00000000 |  0.00000000 383.94800000   0.00000000 |  0.00000000   0.00000000 383.94800000 ] 
New "LineCode.mtx607" nphases=1 units=mi rmatrix=[  1.34250000 ] xmatrix=[  0.51240000 ] cmatrix=[236.00000000 ] baseFreq=60.0 
